*Heading
** Job name: 60_Element Model name: Cohesive_element
** Generated by: Abaqus/CAE 2017
*Preprint, echo=NO, model=NO, history=NO, contact=NO
**
** PARTS
**
*Part, name=Adhesive
*Node
      1,           0.,           0.
      2, 0.00033333333,           0.
      3, 0.00066666666,           0.
      4, 0.00100000005,           0.
      5, 0.00133333332,           0.
      6, 0.00166666671,           0.
      7, 0.00200000009,           0.
      8, 0.00233333325,           0.
      9, 0.00266666664,           0.
     10, 0.00300000003,           0.
     11, 0.00333333341,           0.
     12, 0.00366666657,           0.
     13, 0.00400000019,           0.
     14, 0.00433333311,           0.
     15, 0.0046666665,           0.
     16, 0.00499999989,           0.
     17, 0.00533333328,           0.
     18, 0.00566666666,           0.
     19, 0.00600000005,           0.
     20, 0.00633333344,           0.
** ... 402 like lines cut
*Element, type=COH2D4
  1,   1,   2, 213, 212
  2,   2,   3, 214, 213
  3,   3,   4, 215, 214
  4,   4,   5, 216, 215
  5,   5,   6, 217, 216
  6,   6,   7, 218, 217
  7,   7,   8, 219, 218
  8,   8,   9, 220, 219
  9,   9,  10, 221, 220
 10,  10,  11, 222, 221
 11,  11,  12, 223, 222
 12,  12,  13, 224, 223
 13,  13,  14, 225, 224
 14,  14,  15, 226, 225
 15,  15,  16, 227, 226
 16,  16,  17, 228, 227
 17,  17,  18, 229, 228
 18,  18,  19, 230, 229
 19,  19,  20, 231, 230
 20,  20,  21, 232, 231
** ... 190 like lines cut
*Nset, nset=Set-1, generate
   1,  422,    1
*Elset, elset=Set-1, generate
   1,  210,    1
** Section: Adhesive
*Cohesive Section, elset=Set-1, controls=EC-1, material=Cohesive, response=TRACTION SEPARATION
, 0.02
*End Part
**  
*Part, name=Lamina
*Node
      1,           0.,           0.
      2, 0.00033333333,           0.
      3, 0.00066666666,           0.
      4, 0.00100000005,           0.
      5, 0.00133333332,           0.
      6, 0.00166666671,           0.
      7, 0.00200000009,           0.
      8, 0.00233333325,           0.
      9, 0.00266666664,           0.
     10, 0.00300000003,           0.
     11, 0.00333333341,           0.
     12, 0.00366666657,           0.
     13, 0.00400000019,           0.
     14, 0.00433333311,           0.
     15, 0.0046666665,           0.
     16, 0.00499999989,           0.
     17, 0.00533333328,           0.
     18, 0.00566666666,           0.
     19, 0.00600000005,           0.
     20, 0.00633333344,           0.
** ... 1485 like lines cut
*Element, type=CPE4I
   1,    1,    2,  303,  302
   2,    2,    3,  304,  303
   3,    3,    4,  305,  304
   4,    4,    5,  306,  305
   5,    5,    6,  307,  306
   6,    6,    7,  308,  307
   7,    7,    8,  309,  308
   8,    8,    9,  310,  309
   9,    9,   10,  311,  310
  10,   10,   11,  312,  311
  11,   11,   12,  313,  312
  12,   12,   13,  314,  313
  13,   13,   14,  315,  314
  14,   14,   15,  316,  315
  15,   15,   16,  317,  316
  16,   16,   17,  318,  317
  17,   17,   18,  319,  318
  18,   18,   19,  320,  319
  19,   19,   20,  321,  320
  20,   20,   21,  322,  321
** ... 1180 like lines cut
*Nset, nset=Set-1, generate
    1,  1505,     1
*Elset, elset=Set-1, generate
    1,  1200,     1
*Orientation, name=Ori-4
1., 0., 0., 0., 1., 0.
3, 60.
** Section: lamina
*Solid Section, elset=Set-1, orientation=Ori-4, material=Composite
0.02,
*End Part
**  
**
** ASSEMBLY
**
*Assembly, name=Assembly
**  
*Instance, name=Lamina-1, part=Lamina
*End Instance
**  
*Instance, name=Adhesive-1, part=Adhesive
        0.03,     -0.00075,           0.
*End Instance
**  
*Instance, name=Lamina-2, part=Lamina
          0.,      -0.0015,           0.
*End Instance
**  
*Nset, nset=Set-3, instance=Lamina-1
 1205,
*Nset, nset=Set-4, instance=Lamina-2
 1,
*Nset, nset=Set-5, instance=Lamina-1, generate
  301,  1505,   301
*Nset, nset=Set-5, instance=Lamina-2, generate
  301,  1505,   301
*Elset, elset=Set-5, instance=Lamina-1, generate
  300,  1200,   300
*Elset, elset=Set-5, instance=Lamina-2, generate
  300,  1200,   300
*Nset, nset=bot, instance=Lamina-2
 1,
*Nset, nset=top, instance=Lamina-1
 1205,
*Elset, elset=_bot_S3, internal, instance=Lamina-2, generate
  901,  1200,     1
*Surface, type=ELEMENT, name=bot
_bot_S3, S3
*Elset, elset=_coh-bot_S1, internal, instance=Adhesive-1, generate
   1,  210,    1
*Surface, type=ELEMENT, name=coh-bot
_coh-bot_S1, S1
*Elset, elset=_coh-top_S3, internal, instance=Adhesive-1, generate
   1,  210,    1
*Surface, type=ELEMENT, name=coh-top
_coh-top_S3, S3
*Elset, elset=_top_S1, internal, instance=Lamina-1, generate
   1,  300,    1
*Surface, type=ELEMENT, name=top
_top_S1, S1
** Constraint: bot
*Tie, name=bot, adjust=yes, position tolerance=0.002
coh-bot, bot
** Constraint: top
*Tie, name=top, adjust=yes, position tolerance=0.002
coh-top, top
*End Assembly
** 
** ELEMENT CONTROLS
** 
*Section Controls, name=EC-1, VISCOSITY=1e-05
1., 1., 1.
** 
** MATERIALS
** 
*Material, name=Cohesive
*Damage Initiation, criterion=QUADS
 8e+07, 8e+07, 8e+07
*Damage Evolution, type=ENERGY, mixed mode behavior=BK, power=2.284
969.,969.,969.
*Elastic, type=TRACTION
 8e+14, 8e+14, 8e+14
*Material, name=Composite
*Elastic, type=ENGINEERING CONSTANTS
 1.227e+11, 1.01e+10, 1.01e+10,     0.25,     0.25,     0.45,  5.5e+09,  5.5e+09
  3.7e+09,
** ----------------------------------------------------------------
** 
** STEP: Step-1
** 
*Step, name=Step-1, nlgeom=YES, inc=5000
*Static
0.001, 1., 1e-16, 0.1
** 
** BOUNDARY CONDITIONS
** 
** Name: BC-1 Type: Displacement/Rotation
*Boundary
Set-3, 1, 1
Set-3, 2, 2, 0.008
** Name: BC-2 Type: Displacement/Rotation
*Boundary
Set-4, 1, 1
Set-4, 2, 2, -0.008
** 
** OUTPUT REQUESTS
** 
*Restart, write, frequency=0
** 
** FIELD OUTPUT: F-Output-1
** 
*Output, field
*Node Output
CF, RF, U
*Element Output, directions=YES
LE, PE, PEEQ, PEMAG, S, STATUS
*Contact Output
CDISP, CSTRESS
** 
** HISTORY OUTPUT: H-Output-2
** 
*Output, history
*Node Output, nset=top
RF2, U2
** 
** HISTORY OUTPUT: H-Output-1
** 
*Output, history, variable=PRESELECT
*End Step
