*Heading
** Job name: 60_VCCT Model name: VCCT
** Generated by: Abaqus/CAE 2017
*Preprint, echo=NO, model=NO, history=NO, contact=NO
**
** PARTS
**
*Part, name=Lamina
*Node
      1,  0.100000001,           0.
      2,  0.100000001, 0.000375000003
      3,  0.100000001, 0.000750000007
      4,  0.100000001, 0.00112499995
      5,  0.100000001, 0.00150000001
      6,   0.09966667,           0.
      7,   0.09966667, 0.000375000003
      8,   0.09966667, 0.000750000007
      9,   0.09966667, 0.00112499995
     10,   0.09966667, 0.00150000001
     11,  0.099333331,           0.
     12,  0.099333331, 0.000375000003
     13,  0.099333331, 0.000750000007
     14,  0.099333331, 0.00112499995
     15,  0.099333331, 0.00150000001
     16, 0.0989999995,           0.
     17, 0.0989999995, 0.000375000003
     18, 0.0989999995, 0.000750000007
     19, 0.0989999995, 0.00112499995
     20, 0.0989999995, 0.00150000001
** ... 1485 like lines cut
*Element, type=CPE4I
   1,    1,    2,    7,    6
   2,    2,    3,    8,    7
   3,    3,    4,    9,    8
   4,    4,    5,   10,    9
   5,    6,    7,   12,   11
   6,    7,    8,   13,   12
   7,    8,    9,   14,   13
   8,    9,   10,   15,   14
   9,   11,   12,   17,   16
  10,   12,   13,   18,   17
  11,   13,   14,   19,   18
  12,   14,   15,   20,   19
  13,   16,   17,   22,   21
  14,   17,   18,   23,   22
  15,   18,   19,   24,   23
  16,   19,   20,   25,   24
  17,   21,   22,   27,   26
  18,   22,   23,   28,   27
  19,   23,   24,   29,   28
  20,   24,   25,   30,   29
** ... 1180 like lines cut
*Nset, nset=Set-1, generate
    1,  1505,     1
*Elset, elset=Set-1, generate
    1,  1200,     1
*Orientation, name=Ori-5
1., 0., 0., 0., 1., 0.
3, 60.
** Section: lamina
*Solid Section, elset=Set-1, orientation=Ori-5, material=Composite
0.02,
*End Part
**  
**
** ASSEMBLY
**
*Assembly, name=Assembly
**  
*Instance, name=Lamina-1, part=Lamina
*End Instance
**  
*Instance, name=Lamina-2, part=Lamina
 1.63912799999721e-09,      -0.0015,           0.
*End Instance
**  
*Nset, nset=Bond, instance=Lamina-1, generate
    1,  1051,     5
*Elset, elset=Bond, instance=Lamina-1, generate
   1,  837,    4
*Nset, nset=Set-4, instance=Lamina-1, generate
 1,  5,  1
*Nset, nset=Set-4, instance=Lamina-2, generate
 1,  5,  1
*Elset, elset=Set-4, instance=Lamina-1, generate
 1,  4,  1
*Elset, elset=Set-4, instance=Lamina-2, generate
 1,  4,  1
*Nset, nset=bot, instance=Lamina-2
 1501,
*Nset, nset=top, instance=Lamina-1
 1505,
*Elset, elset=_Bot_S2, internal, instance=Lamina-2, generate
    4,  1200,     4
*Surface, type=ELEMENT, name=Bot
_Bot_S2, S2
*Elset, elset=_Top_S4, internal, instance=Lamina-1, generate
    1,  1197,     4
*Surface, type=ELEMENT, name=Top
_Top_S4, S4
*End Assembly
** 
** MATERIALS
** 
*Material, name=Composite
*Elastic, type=ENGINEERING CONSTANTS
 1.227e+11, 1.01e+10, 1.01e+10,     0.25,     0.25,     0.45,  5.5e+09,  5.5e+09
  3.7e+09,
** 
** INTERACTION PROPERTIES
** 
*Surface Interaction, name=Cohesive
0.02,
*Friction
0.,
*Surface Behavior, pressure-overclosure=HARD
*Clearance, master=Bot, slave=Top, value=1e-07
** 
** INTERACTIONS
** 
** Interaction: Cohesive
*Contact Pair, interaction=Cohesive, small sliding
Top, Bot
*Initial Conditions, type=CONTACT
Top,Bot,Bond
** ----------------------------------------------------------------
** 
** STEP: Step-1
** 
*Step, name=Step-1, nlgeom=YES, inc=10000
*Static
0.0001, 1., 1e-08, 0.1
*Debond,slave=Top,master=Bot
*Fracture criterion, type=VCCT, mixed mode behavior=BK, tolerance=0.1
969.0,969.0,969.0,2.284
** 
** BOUNDARY CONDITIONS
** 
** Name: BC-1 Type: Displacement/Rotation
*Boundary
top, 1, 1
top, 2, 2, 0.008
** Name: BC-2 Type: Displacement/Rotation
*Boundary
bot, 1, 1
bot, 2, 2, -0.008
** 
** CONTROLS
** 
*Controls, reset
*Controls, parameters=time incrementation
10, 20, , , , , , , , , 
** 
** OUTPUT REQUESTS
** 
*Restart, write, frequency=0
** 
** FIELD OUTPUT: F-Output-1
** 
*Output, field
*Node Output
CF, RF, U
*Element Output, directions=YES
LE, PE, PEEQ, PEMAG, S, STATUS
*Contact Output
BDSTAT, CDISP, CSTRESS, ENRRT
** 
** HISTORY OUTPUT: H-Output-2
** 
*Output, history
*Node Output, nset=top
RF2, U2
** 
** HISTORY OUTPUT: H-Output-1
** 
*Output, history, variable=PRESELECT
*End Step
