*Heading
** Job name: Element1600 Model name: Cohesive_element
** Generated by: Abaqus/CAE 2017
*Preprint, echo=NO, model=NO, history=NO, contact=NO
**
** PARTS
**
*Part, name=Adhesive
*Node
      1,           0.,           0.
      2, 0.000250000012,           0.
      3, 0.000500000024,           0.
      4, 0.000750000007,           0.
      5, 0.00100000005,           0.
      6, 0.00124999997,           0.
      7, 0.00150000001,           0.
      8, 0.00175000005,           0.
      9, 0.00200000009,           0.
     10, 0.0022499999,           0.
     11, 0.00249999994,           0.
     12, 0.00274999999,           0.
     13, 0.00300000003,           0.
     14, 0.00325000007,           0.
     15, 0.00350000011,           0.
     16, 0.00374999992,           0.
     17, 0.00400000019,           0.
     18, 0.00425000023,           0.
     19, 0.00449999981,           0.
     20, 0.00474999985,           0.
** ... 542 like lines cut
*Element, type=COH2D4
  1,   1,   2, 283, 282
  2,   2,   3, 284, 283
  3,   3,   4, 285, 284
  4,   4,   5, 286, 285
  5,   5,   6, 287, 286
  6,   6,   7, 288, 287
  7,   7,   8, 289, 288
  8,   8,   9, 290, 289
  9,   9,  10, 291, 290
 10,  10,  11, 292, 291
 11,  11,  12, 293, 292
 12,  12,  13, 294, 293
 13,  13,  14, 295, 294
 14,  14,  15, 296, 295
 15,  15,  16, 297, 296
 16,  16,  17, 298, 297
 17,  17,  18, 299, 298
 18,  18,  19, 300, 299
 19,  19,  20, 301, 300
 20,  20,  21, 302, 301
** ... 260 like lines cut
*Nset, nset=Set-1, generate
   1,  562,    1
*Elset, elset=Set-1, generate
   1,  280,    1
** Section: Adhesive
*Cohesive Section, elset=Set-1, controls=EC-1, material=Cohesive, response=TRACTION SEPARATION
, 0.02
*End Part
**  
*Part, name=Lamina
*Node
      1,           0.,           0.
      2, 0.000250000012,           0.
      3, 0.000500000024,           0.
      4, 0.000750000007,           0.
      5, 0.00100000005,           0.
      6, 0.00124999997,           0.
      7, 0.00150000001,           0.
      8, 0.00175000005,           0.
      9, 0.00200000009,           0.
     10, 0.0022499999,           0.
     11, 0.00249999994,           0.
     12, 0.00274999999,           0.
     13, 0.00300000003,           0.
     14, 0.00325000007,           0.
     15, 0.00350000011,           0.
     16, 0.00374999992,           0.
     17, 0.00400000019,           0.
     18, 0.00425000023,           0.
     19, 0.00449999981,           0.
     20, 0.00474999985,           0.
** ... 1183 like lines cut
*Element, type=CPE4I
  1,    1,    2,  403,  402
  2,    2,    3,  404,  403
  3,    3,    4,  405,  404
  4,    4,    5,  406,  405
  5,    5,    6,  407,  406
  6,    6,    7,  408,  407
  7,    7,    8,  409,  408
  8,    8,    9,  410,  409
  9,    9,   10,  411,  410
 10,   10,   11,  412,  411
 11,   11,   12,  413,  412
 12,   12,   13,  414,  413
 13,   13,   14,  415,  414
 14,   14,   15,  416,  415
 15,   15,   16,  417,  416
 16,   16,   17,  418,  417
 17,   17,   18,  419,  418
 18,   18,   19,  420,  419
 19,   19,   20,  421,  420
 20,   20,   21,  422,  421
** ... 780 like lines cut
*Nset, nset=Set-1, generate
    1,  1203,     1
*Elset, elset=Set-1, generate
   1,  800,    1
*Orientation, name=Ori-1
1., 0., 0., 0., 1., 0.
3, 0.
** Section: lamina
*Solid Section, elset=Set-1, orientation=Ori-1, material=Composite
0.02,
*End Part
**  
**
** ASSEMBLY
**
*Assembly, name=Assembly
**  
*Instance, name=Lamina-1, part=Lamina
*End Instance
**  
*Instance, name=Adhesive-1, part=Adhesive
        0.03,     -0.00075,           0.
*End Instance
**  
*Instance, name=Lamina-2, part=Lamina
          0.,      -0.0015,           0.
*End Instance
**  
*Nset, nset=Set-3, instance=Lamina-1
 803,
*Nset, nset=Set-4, instance=Lamina-2
 1,
*Nset, nset=Set-5, instance=Lamina-1, generate
  401,  1203,   401
*Nset, nset=Set-5, instance=Lamina-2, generate
  401,  1203,   401
*Elset, elset=Set-5, instance=Lamina-1
 400, 800
*Elset, elset=Set-5, instance=Lamina-2
 400, 800
*Nset, nset=bot, instance=Lamina-2
 1,
*Nset, nset=top, instance=Lamina-1
 803,
*Elset, elset=_bot_S3, internal, instance=Lamina-2, generate
 401,  800,    1
*Surface, type=ELEMENT, name=bot
_bot_S3, S3
*Elset, elset=_coh-bot_S1, internal, instance=Adhesive-1, generate
   1,  280,    1
*Surface, type=ELEMENT, name=coh-bot
_coh-bot_S1, S1
*Elset, elset=_coh-top_S3, internal, instance=Adhesive-1, generate
   1,  280,    1
*Surface, type=ELEMENT, name=coh-top
_coh-top_S3, S3
*Elset, elset=_top_S1, internal, instance=Lamina-1, generate
   1,  400,    1
*Surface, type=ELEMENT, name=top
_top_S1, S1
** Constraint: bot
*Tie, name=bot, adjust=yes, position tolerance=0.002
coh-bot, bot
** Constraint: top
*Tie, name=top, adjust=yes, position tolerance=0.002
coh-top, top
*End Assembly
** 
** ELEMENT CONTROLS
** 
*Section Controls, name=EC-1, VISCOSITY=1e-05
1., 1., 1.
** 
** MATERIALS
** 
*Material, name=Cohesive
*Damage Initiation, criterion=QUADS
 8e+07, 8e+07, 8e+07
*Damage Evolution, type=ENERGY, mixed mode behavior=BK, power=2.284
969.,969.,969.
*Elastic, type=TRACTION
 8e+14, 8e+14, 8e+14
*Material, name=Composite
*Elastic, type=ENGINEERING CONSTANTS
 1.227e+11, 1.01e+10, 1.01e+10,     0.25,     0.25,     0.45,  5.5e+09,  5.5e+09
  3.7e+09,
** ----------------------------------------------------------------
** 
** STEP: Step-1
** 
*Step, name=Step-1, nlgeom=YES, inc=5000
*Static
0.001, 1., 1e-08, 0.1
** 
** BOUNDARY CONDITIONS
** 
** Name: BC-1 Type: Displacement/Rotation
*Boundary
Set-3, 1, 1
Set-3, 2, 2, 0.008
** Name: BC-2 Type: Displacement/Rotation
*Boundary
Set-4, 1, 1
Set-4, 2, 2, -0.008
** 
** OUTPUT REQUESTS
** 
*Restart, write, frequency=0
** 
** FIELD OUTPUT: F-Output-1
** 
*Output, field
*Node Output
CF, RF, U
*Element Output, directions=YES
LE, PE, PEEQ, PEMAG, S, STATUS
*Contact Output
CDISP, CSTRESS
** 
** HISTORY OUTPUT: H-Output-2
** 
*Output, history
*Node Output, nset=top
RF2, U2
** 
** HISTORY OUTPUT: H-Output-1
** 
*Output, history, variable=PRESELECT
*End Step
