*Heading
** Job name: Element100 Model name: Cohesive_element
** Generated by: Abaqus/CAE 2017
*Preprint, echo=NO, model=NO, history=NO, contact=NO
**
** PARTS
**
*Part, name=Adhesive
*Node
      1,           0.,           0.
      2, 0.00200000009,           0.
      3, 0.00400000019,           0.
      4, 0.00600000005,           0.
      5, 0.00800000038,           0.
      6, 0.00999999978,           0.
      7, 0.0120000001,           0.
      8, 0.0140000004,           0.
      9, 0.0160000008,           0.
     10, 0.0179999992,           0.
     11, 0.0199999996,           0.
     12, 0.0219999999,           0.
     13, 0.0240000002,           0.
     14, 0.0260000005,           0.
     15, 0.0280000009,           0.
     16, 0.0299999993,           0.
     17, 0.0320000015,           0.
     18, 0.0340000018,           0.
     19, 0.0359999985,           0.
     20, 0.0379999988,           0.
** ... 52 like lines cut
*Element, type=COH2D4
 1,  1,  2, 38, 37
 2,  2,  3, 39, 38
 3,  3,  4, 40, 39
 4,  4,  5, 41, 40
 5,  5,  6, 42, 41
 6,  6,  7, 43, 42
 7,  7,  8, 44, 43
 8,  8,  9, 45, 44
 9,  9, 10, 46, 45
10, 10, 11, 47, 46
11, 11, 12, 48, 47
12, 12, 13, 49, 48
13, 13, 14, 50, 49
14, 14, 15, 51, 50
15, 15, 16, 52, 51
16, 16, 17, 53, 52
17, 17, 18, 54, 53
18, 18, 19, 55, 54
19, 19, 20, 56, 55
20, 20, 21, 57, 56
** ... 15 like lines cut
*Nset, nset=Set-1, generate
  1,  72,   1
*Elset, elset=Set-1, generate
  1,  35,   1
** Section: Adhesive
*Cohesive Section, elset=Set-1, controls=EC-1, material=Cohesive, response=TRACTION SEPARATION
, 0.02
*End Part
**  
*Part, name=Lamina
*Node
      1,           0.,           0.
      2, 0.00200000009,           0.
      3, 0.00400000019,           0.
      4, 0.00600000005,           0.
      5, 0.00800000038,           0.
      6, 0.00999999978,           0.
      7, 0.0120000001,           0.
      8, 0.0140000004,           0.
      9, 0.0160000008,           0.
     10, 0.0179999992,           0.
     11, 0.0199999996,           0.
     12, 0.0219999999,           0.
     13, 0.0240000002,           0.
     14, 0.0260000005,           0.
     15, 0.0280000009,           0.
     16, 0.0299999993,           0.
     17, 0.0320000015,           0.
     18, 0.0340000018,           0.
     19, 0.0359999985,           0.
     20, 0.0379999988,           0.
** ... 82 like lines cut
*Element, type=CPE4I
 1,   1,   2,  53,  52
 2,   2,   3,  54,  53
 3,   3,   4,  55,  54
 4,   4,   5,  56,  55
 5,   5,   6,  57,  56
 6,   6,   7,  58,  57
 7,   7,   8,  59,  58
 8,   8,   9,  60,  59
 9,   9,  10,  61,  60
10,  10,  11,  62,  61
11,  11,  12,  63,  62
12,  12,  13,  64,  63
13,  13,  14,  65,  64
14,  14,  15,  66,  65
15,  15,  16,  67,  66
16,  16,  17,  68,  67
17,  17,  18,  69,  68
18,  18,  19,  70,  69
19,  19,  20,  71,  70
20,  20,  21,  72,  71
** ... 30 like lines cut
*Nset, nset=Set-1, generate
   1,  102,    1
*Elset, elset=Set-1, generate
  1,  50,   1
*Orientation, name=Ori-1
1., 0., 0., 0., 1., 0.
3, 0.
** Section: lamina
*Solid Section, elset=Set-1, orientation=Ori-1, material=Composite
0.02,
*End Part
**  
**
** ASSEMBLY
**
*Assembly, name=Assembly
**  
*Instance, name=Lamina-1, part=Lamina
*End Instance
**  
*Instance, name=Adhesive-1, part=Adhesive
        0.03,     -0.00075,           0.
*End Instance
**  
*Instance, name=Lamina-2, part=Lamina
          0.,      -0.0015,           0.
*End Instance
**  
*Nset, nset=Set-3, instance=Lamina-1
 52,
*Nset, nset=Set-4, instance=Lamina-2
 1,
*Nset, nset=Set-5, instance=Lamina-1
  51, 102
*Nset, nset=Set-5, instance=Lamina-2
  51, 102
*Elset, elset=Set-5, instance=Lamina-1
 50,
*Elset, elset=Set-5, instance=Lamina-2
 50,
*Nset, nset=bot, instance=Lamina-2
 1,
*Nset, nset=top, instance=Lamina-1
 52,
*Elset, elset=_bot_S3, internal, instance=Lamina-2, generate
  1,  50,   1
*Surface, type=ELEMENT, name=bot
_bot_S3, S3
*Elset, elset=_coh-bot_S1, internal, instance=Adhesive-1, generate
  1,  35,   1
*Surface, type=ELEMENT, name=coh-bot
_coh-bot_S1, S1
*Elset, elset=_coh-top_S3, internal, instance=Adhesive-1, generate
  1,  35,   1
*Surface, type=ELEMENT, name=coh-top
_coh-top_S3, S3
*Elset, elset=_top_S1, internal, instance=Lamina-1, generate
  1,  50,   1
*Surface, type=ELEMENT, name=top
_top_S1, S1
** Constraint: bot
*Tie, name=bot, adjust=yes, position tolerance=0.002
coh-bot, bot
** Constraint: top
*Tie, name=top, adjust=yes, position tolerance=0.002
coh-top, top
*End Assembly
** 
** ELEMENT CONTROLS
** 
*Section Controls, name=EC-1, VISCOSITY=1e-05
1., 1., 1.
** 
** MATERIALS
** 
*Material, name=Cohesive
*Damage Initiation, criterion=QUADS
 8e+07, 8e+07, 8e+07
*Damage Evolution, type=ENERGY, mixed mode behavior=BK, power=2.284
969.,969.,969.
*Elastic, type=TRACTION
 8e+14, 8e+14, 8e+14
*Material, name=Composite
*Elastic, type=ENGINEERING CONSTANTS
 1.227e+11, 1.01e+10, 1.01e+10,     0.25,     0.25,     0.45,  5.5e+09,  5.5e+09
  3.7e+09,
** ----------------------------------------------------------------
** 
** STEP: Step-1
** 
*Step, name=Step-1, nlgeom=YES, inc=5000
*Static
0.001, 1., 1e-08, 0.1
** 
** BOUNDARY CONDITIONS
** 
** Name: BC-1 Type: Displacement/Rotation
*Boundary
Set-3, 1, 1
Set-3, 2, 2, 0.008
** Name: BC-2 Type: Displacement/Rotation
*Boundary
Set-4, 1, 1
Set-4, 2, 2, -0.008
** 
** OUTPUT REQUESTS
** 
*Restart, write, frequency=0
** 
** FIELD OUTPUT: F-Output-1
** 
*Output, field
*Node Output
CF, RF, U
*Element Output, directions=YES
LE, PE, PEEQ, PEMAG, S, STATUS
*Contact Output
CDISP, CSTRESS
** 
** HISTORY OUTPUT: H-Output-2
** 
*Output, history
*Node Output, nset=top
RF2, U2
** 
** HISTORY OUTPUT: H-Output-1
** 
*Output, history, variable=PRESELECT
*End Step
