*Heading
** Job name: Element400 Model name: Cohesive_element
** Generated by: Abaqus/CAE 2017
*Preprint, echo=NO, model=NO, history=NO, contact=NO
**
** PARTS
**
*Part, name=Adhesive
*Node
      1,           0.,           0.
      2, 0.00100000005,           0.
      3, 0.00200000009,           0.
      4, 0.00300000003,           0.
      5, 0.00400000019,           0.
      6, 0.00499999989,           0.
      7, 0.00600000005,           0.
      8, 0.00700000022,           0.
      9, 0.00800000038,           0.
     10, 0.00899999961,           0.
     11, 0.00999999978,           0.
     12, 0.0109999999,           0.
     13, 0.0120000001,           0.
     14, 0.0130000003,           0.
     15, 0.0140000004,           0.
     16, 0.0149999997,           0.
     17, 0.0160000008,           0.
     18, 0.0170000009,           0.
     19, 0.0179999992,           0.
     20, 0.0189999994,           0.
** ... 122 like lines cut
*Element, type=COH2D4
 1,   1,   2,  73,  72
 2,   2,   3,  74,  73
 3,   3,   4,  75,  74
 4,   4,   5,  76,  75
 5,   5,   6,  77,  76
 6,   6,   7,  78,  77
 7,   7,   8,  79,  78
 8,   8,   9,  80,  79
 9,   9,  10,  81,  80
10,  10,  11,  82,  81
11,  11,  12,  83,  82
12,  12,  13,  84,  83
13,  13,  14,  85,  84
14,  14,  15,  86,  85
15,  15,  16,  87,  86
16,  16,  17,  88,  87
17,  17,  18,  89,  88
18,  18,  19,  90,  89
19,  19,  20,  91,  90
20,  20,  21,  92,  91
** ... 50 like lines cut
*Nset, nset=Set-1, generate
   1,  142,    1
*Elset, elset=Set-1, generate
  1,  70,   1
** Section: Adhesive
*Cohesive Section, elset=Set-1, controls=EC-1, material=Cohesive, response=TRACTION SEPARATION
, 0.02
*End Part
**  
*Part, name=Lamina
*Node
      1,           0.,           0.
      2, 0.00100000005,           0.
      3, 0.00200000009,           0.
      4, 0.00300000003,           0.
      5, 0.00400000019,           0.
      6, 0.00499999989,           0.
      7, 0.00600000005,           0.
      8, 0.00700000022,           0.
      9, 0.00800000038,           0.
     10, 0.00899999961,           0.
     11, 0.00999999978,           0.
     12, 0.0109999999,           0.
     13, 0.0120000001,           0.
     14, 0.0130000003,           0.
     15, 0.0140000004,           0.
     16, 0.0149999997,           0.
     17, 0.0160000008,           0.
     18, 0.0170000009,           0.
     19, 0.0179999992,           0.
     20, 0.0189999994,           0.
** ... 283 like lines cut
*Element, type=CPE4I
  1,   1,   2, 103, 102
  2,   2,   3, 104, 103
  3,   3,   4, 105, 104
  4,   4,   5, 106, 105
  5,   5,   6, 107, 106
  6,   6,   7, 108, 107
  7,   7,   8, 109, 108
  8,   8,   9, 110, 109
  9,   9,  10, 111, 110
 10,  10,  11, 112, 111
 11,  11,  12, 113, 112
 12,  12,  13, 114, 113
 13,  13,  14, 115, 114
 14,  14,  15, 116, 115
 15,  15,  16, 117, 116
 16,  16,  17, 118, 117
 17,  17,  18, 119, 118
 18,  18,  19, 120, 119
 19,  19,  20, 121, 120
 20,  20,  21, 122, 121
** ... 180 like lines cut
*Nset, nset=Set-1, generate
   1,  303,    1
*Elset, elset=Set-1, generate
   1,  200,    1
*Orientation, name=Ori-1
1., 0., 0., 0., 1., 0.
3, 0.
** Section: lamina
*Solid Section, elset=Set-1, orientation=Ori-1, material=Composite
0.02,
*End Part
**  
**
** ASSEMBLY
**
*Assembly, name=Assembly
**  
*Instance, name=Lamina-1, part=Lamina
*End Instance
**  
*Instance, name=Adhesive-1, part=Adhesive
        0.03,     -0.00075,           0.
*End Instance
**  
*Instance, name=Lamina-2, part=Lamina
          0.,      -0.0015,           0.
*End Instance
**  
*Nset, nset=Set-3, instance=Lamina-1
 203,
*Nset, nset=Set-4, instance=Lamina-2
 1,
*Nset, nset=Set-5, instance=Lamina-1, generate
 101,  303,  101
*Nset, nset=Set-5, instance=Lamina-2, generate
 101,  303,  101
*Elset, elset=Set-5, instance=Lamina-1
 100, 200
*Elset, elset=Set-5, instance=Lamina-2
 100, 200
*Nset, nset=bot, instance=Lamina-2
 1,
*Nset, nset=top, instance=Lamina-1
 203,
*Elset, elset=_bot_S3, internal, instance=Lamina-2, generate
 101,  200,    1
*Surface, type=ELEMENT, name=bot
_bot_S3, S3
*Elset, elset=_coh-bot_S1, internal, instance=Adhesive-1, generate
  1,  70,   1
*Surface, type=ELEMENT, name=coh-bot
_coh-bot_S1, S1
*Elset, elset=_coh-top_S3, internal, instance=Adhesive-1, generate
  1,  70,   1
*Surface, type=ELEMENT, name=coh-top
_coh-top_S3, S3
*Elset, elset=_top_S1, internal, instance=Lamina-1, generate
   1,  100,    1
*Surface, type=ELEMENT, name=top
_top_S1, S1
** Constraint: bot
*Tie, name=bot, adjust=yes, position tolerance=0.002
coh-bot, bot
** Constraint: top
*Tie, name=top, adjust=yes, position tolerance=0.002
coh-top, top
*End Assembly
** 
** ELEMENT CONTROLS
** 
*Section Controls, name=EC-1, VISCOSITY=1e-05
1., 1., 1.
** 
** MATERIALS
** 
*Material, name=Cohesive
*Damage Initiation, criterion=QUADS
 8e+07, 8e+07, 8e+07
*Damage Evolution, type=ENERGY, mixed mode behavior=BK, power=2.284
969.,969.,969.
*Elastic, type=TRACTION
 8e+14, 8e+14, 8e+14
*Material, name=Composite
*Elastic, type=ENGINEERING CONSTANTS
 1.227e+11, 1.01e+10, 1.01e+10,     0.25,     0.25,     0.45,  5.5e+09,  5.5e+09
  3.7e+09,
** ----------------------------------------------------------------
** 
** STEP: Step-1
** 
*Step, name=Step-1, nlgeom=YES, inc=5000
*Static
0.001, 1., 1e-08, 0.1
** 
** BOUNDARY CONDITIONS
** 
** Name: BC-1 Type: Displacement/Rotation
*Boundary
Set-3, 1, 1
Set-3, 2, 2, 0.008
** Name: BC-2 Type: Displacement/Rotation
*Boundary
Set-4, 1, 1
Set-4, 2, 2, -0.008
** 
** OUTPUT REQUESTS
** 
*Restart, write, frequency=0
** 
** FIELD OUTPUT: F-Output-1
** 
*Output, field
*Node Output
CF, RF, U
*Element Output, directions=YES
LE, PE, PEEQ, PEMAG, S, STATUS
*Contact Output
CDISP, CSTRESS
** 
** HISTORY OUTPUT: H-Output-2
** 
*Output, history
*Node Output, nset=top
RF2, U2
** 
** HISTORY OUTPUT: H-Output-1
** 
*Output, history, variable=PRESELECT
*End Step
