*Heading
** Job name: Surface400 Model name: Cohesive_surface
** Generated by: Abaqus/CAE 2017
*Preprint, echo=NO, model=NO, history=NO, contact=NO
**
** PARTS
**
*Part, name=Lamina
*Node
      1,  0.100000001,           0.
      2,  0.100000001, 0.000750000007
      3,  0.100000001, 0.00150000001
      4, 0.0989999995,           0.
      5, 0.0989999995, 0.000750000007
      6, 0.0989999995, 0.00150000001
      7, 0.0979999974,           0.
      8, 0.0979999974, 0.000750000007
      9, 0.0979999974, 0.00150000001
     10, 0.0970000029,           0.
     11, 0.0970000029, 0.000750000007
     12, 0.0970000029, 0.00150000001
     13, 0.0960000008,           0.
     14, 0.0960000008, 0.000750000007
     15, 0.0960000008, 0.00150000001
     16, 0.0949999988,           0.
     17, 0.0949999988, 0.000750000007
     18, 0.0949999988, 0.00150000001
     19, 0.0939999968,           0.
     20, 0.0939999968, 0.000750000007
** ... 283 like lines cut
*Element, type=CPE4I
  1,   1,   2,   5,   4
  2,   2,   3,   6,   5
  3,   4,   5,   8,   7
  4,   5,   6,   9,   8
  5,   7,   8,  11,  10
  6,   8,   9,  12,  11
  7,  10,  11,  14,  13
  8,  11,  12,  15,  14
  9,  13,  14,  17,  16
 10,  14,  15,  18,  17
 11,  16,  17,  20,  19
 12,  17,  18,  21,  20
 13,  19,  20,  23,  22
 14,  20,  21,  24,  23
 15,  22,  23,  26,  25
 16,  23,  24,  27,  26
 17,  25,  26,  29,  28
 18,  26,  27,  30,  29
 19,  28,  29,  32,  31
 20,  29,  30,  33,  32
** ... 180 like lines cut
*Nset, nset=Set-1, generate
   1,  303,    1
*Elset, elset=Set-1, generate
   1,  200,    1
*Orientation, name=Ori-1
1., 0., 0., 0., 1., 0.
3, 0.
** Section: lamina
*Solid Section, elset=Set-1, orientation=Ori-1, material=Composite
0.02,
*End Part
**  
**
** ASSEMBLY
**
*Assembly, name=Assembly
**  
*Instance, name=Lamina-1, part=Lamina
*End Instance
**  
*Instance, name=Lamina-2, part=Lamina
          0.,      -0.0015,           0.
*End Instance
**  
*Nset, nset=Fixed, instance=Lamina-1, generate
 1,  3,  1
*Nset, nset=Fixed, instance=Lamina-2, generate
 1,  3,  1
*Elset, elset=Fixed, instance=Lamina-1
 1, 2
*Elset, elset=Fixed, instance=Lamina-2
 1, 2
*Nset, nset=bond, instance=Lamina-1, generate
   1,  211,    3
*Elset, elset=bond, instance=Lamina-1, generate
   1,  139,    2
*Nset, nset=bot, instance=Lamina-2
 301,
*Nset, nset=top, instance=Lamina-1
 303,
*Elset, elset=_bot_S2, internal, instance=Lamina-2, generate
   2,  200,    2
*Surface, type=ELEMENT, name=bot
_bot_S2, S2
*Elset, elset=_top_S4, internal, instance=Lamina-1, generate
   1,  199,    2
*Surface, type=ELEMENT, name=top
_top_S4, S4
*End Assembly
** 
** MATERIALS
** 
*Material, name=Composite
*Elastic, type=ENGINEERING CONSTANTS
 1.227e+11, 1.01e+10, 1.01e+10,     0.25,     0.25,     0.45,  5.5e+09,  5.5e+09
  3.7e+09,
** 
** INTERACTION PROPERTIES
** 
*Surface Interaction, name=Cohesive
0.02,
*Friction
0.,
*Surface Behavior, pressure-overclosure=HARD
*Cohesive Behavior, eligibility=SPECIFIED CONTACTS
 8e+14, 8e+14, 8e+14
*Damage Initiation, criterion=QUADS
 8e+07, 8e+07, 8e+07
*Damage Evolution, type=ENERGY, mixed mode behavior=BK, power=2.284
969.,969.,969.
*Damage Stabilization
1e-05
** 
** INTERACTIONS
** 
** Interaction: Int-1
*Contact Pair, interaction=Cohesive
top, bot
*Initial Conditions, type=CONTACT
top, bot, bond
** ----------------------------------------------------------------
** 
** STEP: Step-1
** 
*Step, name=Step-1, nlgeom=YES, inc=5000
*Static
0.0001, 1., 1e-08, 0.1
** 
** BOUNDARY CONDITIONS
** 
** Name: BC-1 Type: Displacement/Rotation
*Boundary
top, 1, 1
top, 2, 2, 0.008
** Name: BC-2 Type: Displacement/Rotation
*Boundary
bot, 1, 1
bot, 2, 2, -0.008
** 
** OUTPUT REQUESTS
** 
*Restart, write, frequency=0
** 
** FIELD OUTPUT: F-Output-1
** 
*Output, field
*Node Output
CF, RF, U
*Element Output, directions=YES
LE, PE, PEEQ, PEMAG, S, STATUS
*Contact Output
CDISP, CSTRESS
** 
** HISTORY OUTPUT: H-Output-2
** 
*Output, history
*Node Output, nset=top
RF2, U2
** 
** HISTORY OUTPUT: H-Output-1
** 
*Output, history, variable=PRESELECT
*End Step
