*Heading
** Job name: VCCT100 Model name: VCCT
** Generated by: Abaqus/CAE 2017
*Preprint, echo=NO, model=NO, history=NO, contact=NO
**
** PARTS
**
*Part, name=Lamina
*Node
      1,  0.100000001,           0.
      2,  0.100000001, 0.00150000001
      3, 0.0979999974,           0.
      4, 0.0979999974, 0.00150000001
      5, 0.0960000008,           0.
      6, 0.0960000008, 0.00150000001
      7, 0.0939999968,           0.
      8, 0.0939999968, 0.00150000001
      9, 0.0920000002,           0.
     10, 0.0920000002, 0.00150000001
     11, 0.0900000036,           0.
     12, 0.0900000036, 0.00150000001
     13, 0.0879999995,           0.
     14, 0.0879999995, 0.00150000001
     15, 0.0860000029,           0.
     16, 0.0860000029, 0.00150000001
     17, 0.0839999989,           0.
     18, 0.0839999989, 0.00150000001
     19, 0.0820000023,           0.
     20, 0.0820000023, 0.00150000001
** ... 82 like lines cut
*Element, type=CPE4I
 1,   1,   2,   4,   3
 2,   3,   4,   6,   5
 3,   5,   6,   8,   7
 4,   7,   8,  10,   9
 5,   9,  10,  12,  11
 6,  11,  12,  14,  13
 7,  13,  14,  16,  15
 8,  15,  16,  18,  17
 9,  17,  18,  20,  19
10,  19,  20,  22,  21
11,  21,  22,  24,  23
12,  23,  24,  26,  25
13,  25,  26,  28,  27
14,  27,  28,  30,  29
15,  29,  30,  32,  31
16,  31,  32,  34,  33
17,  33,  34,  36,  35
18,  35,  36,  38,  37
19,  37,  38,  40,  39
20,  39,  40,  42,  41
** ... 30 like lines cut
*Nset, nset=Set-1, generate
   1,  102,    1
*Elset, elset=Set-1, generate
  1,  50,   1
*Orientation, name=Ori-1
1., 0., 0., 0., 1., 0.
3, 0.
** Section: lamina
*Solid Section, elset=Set-1, orientation=Ori-1, material=Composite
0.02,
*End Part
**  
**
** ASSEMBLY
**
*Assembly, name=Assembly
**  
*Instance, name=Lamina-1, part=Lamina
*End Instance
**  
*Instance, name=Lamina-2, part=Lamina
 1.63912799999721e-09,      -0.0015,           0.
*End Instance
**  
*Nset, nset=Bond, instance=Lamina-1, generate
  1,  71,   2
*Elset, elset=Bond, instance=Lamina-1, generate
  1,  35,   1
*Nset, nset=Set-4, instance=Lamina-1
 1, 2
*Nset, nset=Set-4, instance=Lamina-2
 1, 2
*Elset, elset=Set-4, instance=Lamina-1
 1,
*Elset, elset=Set-4, instance=Lamina-2
 1,
*Nset, nset=bot, instance=Lamina-2
 101,
*Nset, nset=top, instance=Lamina-1
 102,
*Elset, elset=_Bot_S2, internal, instance=Lamina-2, generate
  1,  50,   1
*Surface, type=ELEMENT, name=Bot
_Bot_S2, S2
*Elset, elset=_Top_S4, internal, instance=Lamina-1, generate
  1,  50,   1
*Surface, type=ELEMENT, name=Top
_Top_S4, S4
*End Assembly
** 
** MATERIALS
** 
*Material, name=Composite
*Elastic, type=ENGINEERING CONSTANTS
 1.227e+11, 1.01e+10, 1.01e+10,     0.25,     0.25,     0.45,  5.5e+09,  5.5e+09
  3.7e+09,
** 
** INTERACTION PROPERTIES
** 
*Surface Interaction, name=Cohesive
0.02,
*Friction
0.,
*Surface Behavior, pressure-overclosure=HARD
*Clearance, master=Bot, slave=Top, value=1e-07
** 
** INTERACTIONS
** 
** Interaction: Cohesive
*Contact Pair, interaction=Cohesive, small sliding
Top, Bot
*Initial Conditions, type=CONTACT
Top,Bot,Bond
** ----------------------------------------------------------------
** 
** STEP: Step-1
** 
*Step, name=Step-1, nlgeom=YES, inc=10000
*Static
0.0001, 1., 1e-08, 0.1
*Debond,slave=Top,master=Bot
*Fracture criterion, type=VCCT, mixed mode behavior=BK, tolerance=0.1
969.0,969.0,969.0,2.284
** 
** BOUNDARY CONDITIONS
** 
** Name: BC-1 Type: Displacement/Rotation
*Boundary
top, 1, 1
top, 2, 2, 0.008
** Name: BC-2 Type: Displacement/Rotation
*Boundary
bot, 1, 1
bot, 2, 2, -0.008
** 
** CONTROLS
** 
*Controls, reset
*Controls, parameters=time incrementation
10, 20, , , , , , , , , 
** 
** OUTPUT REQUESTS
** 
*Restart, write, frequency=0
** 
** FIELD OUTPUT: F-Output-1
** 
*Output, field
*Node Output
CF, RF, U
*Element Output, directions=YES
LE, PE, PEEQ, PEMAG, S, STATUS
*Contact Output
BDSTAT, CDISP, CSTRESS, ENRRT
** 
** HISTORY OUTPUT: H-Output-2
** 
*Output, history
*Node Output, nset=top
RF2, U2
** 
** HISTORY OUTPUT: H-Output-1
** 
*Output, history, variable=PRESELECT
*End Step
