*Heading
** Job name: VCCT1600 Model name: VCCT
** Generated by: Abaqus/CAE 2017
*Preprint, echo=NO, model=NO, history=NO, contact=NO
**
** PARTS
**
*Part, name=Lamina
*Node
      1,  0.100000001,           0.
      2,  0.100000001, 0.000750000007
      3,  0.100000001, 0.00150000001
      4, 0.0997499973,           0.
      5, 0.0997499973, 0.000750000007
      6, 0.0997499973, 0.00150000001
      7, 0.0995000005,           0.
      8, 0.0995000005, 0.000750000007
      9, 0.0995000005, 0.00150000001
     10, 0.0992500037,           0.
     11, 0.0992500037, 0.000750000007
     12, 0.0992500037, 0.00150000001
     13, 0.0989999995,           0.
     14, 0.0989999995, 0.000750000007
     15, 0.0989999995, 0.00150000001
     16, 0.0987500027,           0.
     17, 0.0987500027, 0.000750000007
     18, 0.0987500027, 0.00150000001
     19, 0.0984999985,           0.
     20, 0.0984999985, 0.000750000007
** ... 1183 like lines cut
*Element, type=CPE4I
  1,    1,    2,    5,    4
  2,    2,    3,    6,    5
  3,    4,    5,    8,    7
  4,    5,    6,    9,    8
  5,    7,    8,   11,   10
  6,    8,    9,   12,   11
  7,   10,   11,   14,   13
  8,   11,   12,   15,   14
  9,   13,   14,   17,   16
 10,   14,   15,   18,   17
 11,   16,   17,   20,   19
 12,   17,   18,   21,   20
 13,   19,   20,   23,   22
 14,   20,   21,   24,   23
 15,   22,   23,   26,   25
 16,   23,   24,   27,   26
 17,   25,   26,   29,   28
 18,   26,   27,   30,   29
 19,   28,   29,   32,   31
 20,   29,   30,   33,   32
** ... 780 like lines cut
*Nset, nset=Set-1, generate
    1,  1203,     1
*Elset, elset=Set-1, generate
   1,  800,    1
*Orientation, name=Ori-1
1., 0., 0., 0., 1., 0.
3, 0.
** Section: lamina
*Solid Section, elset=Set-1, orientation=Ori-1, material=Composite
0.02,
*End Part
**  
**
** ASSEMBLY
**
*Assembly, name=Assembly
**  
*Instance, name=Lamina-1, part=Lamina
*End Instance
**  
*Instance, name=Lamina-2, part=Lamina
 1.63912799999721e-09,      -0.0015,           0.
*End Instance
**  
*Nset, nset=Bond, instance=Lamina-1, generate
   1,  841,    3
*Elset, elset=Bond, instance=Lamina-1, generate
   1,  559,    2
*Nset, nset=Set-4, instance=Lamina-1, generate
 1,  3,  1
*Nset, nset=Set-4, instance=Lamina-2, generate
 1,  3,  1
*Elset, elset=Set-4, instance=Lamina-1
 1, 2
*Elset, elset=Set-4, instance=Lamina-2
 1, 2
*Nset, nset=bot, instance=Lamina-2
 1201,
*Nset, nset=top, instance=Lamina-1
 1203,
*Elset, elset=_Bot_S2, internal, instance=Lamina-2, generate
   2,  800,    2
*Surface, type=ELEMENT, name=Bot
_Bot_S2, S2
*Elset, elset=_Top_S4, internal, instance=Lamina-1, generate
   1,  799,    2
*Surface, type=ELEMENT, name=Top
_Top_S4, S4
*End Assembly
** 
** MATERIALS
** 
*Material, name=Composite
*Elastic, type=ENGINEERING CONSTANTS
 1.227e+11, 1.01e+10, 1.01e+10,     0.25,     0.25,     0.45,  5.5e+09,  5.5e+09
  3.7e+09,
** 
** INTERACTION PROPERTIES
** 
*Surface Interaction, name=Cohesive
0.02,
*Friction
0.,
*Surface Behavior, pressure-overclosure=HARD
*Clearance, master=Bot, slave=Top, value=1e-07
** 
** INTERACTIONS
** 
** Interaction: Cohesive
*Contact Pair, interaction=Cohesive, small sliding
Top, Bot
*Initial Conditions, type=CONTACT
Top,Bot,Bond
** ----------------------------------------------------------------
** 
** STEP: Step-1
** 
*Step, name=Step-1, nlgeom=YES, inc=10000
*Static
0.0001, 1., 1e-08, 0.1
*Debond,slave=Top,master=Bot
*Fracture criterion, type=VCCT, mixed mode behavior=BK, tolerance=0.1
969.0,969.0,969.0,2.284
** 
** BOUNDARY CONDITIONS
** 
** Name: BC-1 Type: Displacement/Rotation
*Boundary
top, 1, 1
top, 2, 2, 0.008
** Name: BC-2 Type: Displacement/Rotation
*Boundary
bot, 1, 1
bot, 2, 2, -0.008
** 
** CONTROLS
** 
*Controls, reset
*Controls, parameters=time incrementation
10, 20, , , , , , , , , 
** 
** OUTPUT REQUESTS
** 
*Restart, write, frequency=0
** 
** FIELD OUTPUT: F-Output-1
** 
*Output, field
*Node Output
CF, RF, U
*Element Output, directions=YES
LE, PE, PEEQ, PEMAG, S, STATUS
*Contact Output
BDSTAT, CDISP, CSTRESS, ENRRT
** 
** HISTORY OUTPUT: H-Output-2
** 
*Output, history
*Node Output, nset=top
RF2, U2
** 
** HISTORY OUTPUT: H-Output-1
** 
*Output, history, variable=PRESELECT
*End Step
